test/test_files/validation_tests/case6515rte_resqlim.m
function mpc = case6515rte_resqlim
%CASE6515RTE_RESQLIM

%% MATPOWER Case Format : Version 2
mpc.version = '2';

%%-----  Power Flow Data  -----%%
%% system MVA base
mpc.baseMVA = 100;

%% bus data
%    bus_i    type    Pd    Qd    Gs    Bs    area    Vm    Va    baseKV    zone    Vmax    Vmin
mpc.bus = [
    1    1    0    0    0    0    1    0.992597004    -12.6827757    45    1    1    0.888889;
    2    1    0    0    0    0    1    1.02538801    -9.63993441    63    1    1.06349    0.936508;
    3    1    14.8    3.8    0    0    1    1.0085357    -17.0376989    63    1    1.07937    0.952381;
    4    1    49.6    2.8    0    0    1    1.02408976    -30.2058595    90    1    1.08889    0.933333;
    5    1    12.9    0.9    0    0    1    1.00781119    -61.7650605    63    1    1.06349    0.952381;
    6    1    13    5.3    0    0    1    1.02968613    -21.7340745    63    1    1.07937    0.920635;
    7    1    2.3    0.2    0    0    1    1.04612137    -23.1908357    63    1    1.07937    0.920635;
    8    1    15.8    -0.3    0    0    1    1.04137695    -22.5190746    225    1    1.08889    0.888889;
    9    1    14.9    0    0    0    1    1.04106074    -20.1129204    63    1    1.06349    0.936508;
    10    1    0    0    0    0    1    1.01310406    -29.0081553    90    1    1.07778    0.922222;
    11    1    33.2    4.9    0    0    1    1.01310384    -29.0081528    90    1    1.07778    0.922222;
    12    1    0    0    0    0    1    1.01481977    -3.5413976    63    1    1.07937    0.952381;
    13    1    0    0    0    0    1    1.06079044    -5.37467874    380    1    1.10263    1.05271;
    14    1    63.2    13.3    0    30.4    1    1.05499619    -38.5672053    90    1    1.07778    0.977778;
    15    1    0    0    0    0    1    1.01552466    -25.0558802    63    1    1.07937    0.920635;
    16    1    13.9    1.9    0    0    1    1.02743012    -28.7704572    63    1    1.07937    0.920635;
    17    1    10.9    0.1    0    0    1    1.04114467    -35.3795658    90    1    1.06667    0.977778;
    18    1    0    0    0    0    1    0.93894937    -6.38230708    45    1    1    0.888889;
    19    1    1    0    0    0    1    1.01899327    -23.9431728    63    1    1.06349    0.936508;
    20    1    5.6    -18    0    0    1    0.939682717    -6.4215533    45    1    1    0.888889;
    21    1    7.6    -1.6    0    0    1    1.02279543    -23.175172    90    1    1.06667    0.977778;
    22    1    18.5    1    0    0    1    1.00614884    -18.1020754    63    1    1.07937    0.952381;
    23    1    22.4    2.2    0    0    1    1.01976275    -11.3375134    63    1    1.06349    0.936508;
    24    1    17    -1.5    0    0    1    1.0260993    -28.7599101    90    1    1.11111    0.955556;
    25    1    54.7    -1.1    0    0    1    1.06176463    -24.7939826    90    1    1.1    0.944444;
    26    1    15.1    10.6    0    0    1    1.01861525    -30.4344367    90    1    1.06667    0.977778;
    27    1    0    0    0    0    1    1.05586485    -25.5568031    225    1    1.08444    1.00444;
    28    1    0.9    -0.2    0    0    1    1.01872286    -24.2529881    63    1    1.07937    0.952381;
    29    1    76.5    9.4    0    0    1    0.992055521    -26.1364321    63    1    1.06349    0.968254;
    30    1    39.9    3.5    0    0    1    1.01598655    -29.3211508    90    1    1.08889    0.933333;
    31    1    0    0    0    0    1    1.0432948    -10.2149326    63    1    1.06349    0.936508;
    32    1    0    0    0    0    1    1.04830522    -5.01906075    150    1    1.10667    0.9;
    33    1    0    0    0    0    1    1.058672    -7.37911849    225    1    1.08889    0.933333;
    34    1    0    0    0    0    1    1.05576022    -6.72043314    225    1    1.08889    0.933333;
    35    1    0    0    0    0    1    1.07213684    -6.11749276    380    1    1.10526    1.03947;
    36    1    0    0    0    0    1    1.07551436    -5.13587119    380    1    1.10526    1.03947;
    37    1    -2.7    3    0    0    1    1.0129671    -27.0210945    63    1    1.07937    0.920635;
    38    1    5    -1    0    0    1    1.02790449    -25.7302712    63    1    1.09524    0.936508;
    39    1    43.6    -2.9    0    0    1    1.01458533    -46.1131807    90    1    1.07778    0.977778;
    40    1    38.1    4.1    0    0    1    1.04788501    -36.7039102    90    1    1.07778    0.977778;
    41    1    0    0    0    0    1    1.05907675    -31.0364475    225    1    1.08889    1.00444;
    42    1    0    0    0    0    1    1.1230738    0.327157188    63    1    1.13099    0.952381;
    43    1    3.2    2.7    0    0    1    1.03299586    -32.9048182    90    1    1.07778    0.977778;
    44    1    13.3    0.1    0    0    1    1.02313911    -57.427984    63    1    1.06349    0.952381;
    45    1    3.8    1.6    0    0    1    1.01331577    -39.9117761    90    1    1.06667    0.977778;
    46    1    0    0    0    0    1    1.02983314    -16.9867905    63    1    1.06349    0.936508;
    47    1    -1.77635684e-15    0    0    0    1    1.02787069    -13.006679    63    1    1.06349    0.936508;
    48    1    40.4    5.6    0    0    1    1.01517079    -30.3434913    90    1    1.07778    0.922222;
    49    1    9.8    -1.9    0    0    1    1.02393222    -18.3153164    63    1    1.06349    0.936508;
    50    1    0    0    0    0    1    1.06629028    -15.7320985    63    1    1.06927    0.936508;
    51    1    0    0    0    0    1    1.05397371    -10.7554994    225    1    1.08889    0.933333;
    52    1    6.5    2.9    0    0    1    1.02643094    -41.9466704    90    1    1.06667    0.977778;
    53    1    0    -1.3    0    0    1    0.990390192    -33.0680811    63    1    1.04762    0.952381;
    54    1    0.3    -0.3    0    0    1    1.03174807    -22.157596    90    1    1.06667    0.977778;
    55    1    50.9    12.3    0    0    1    1.06610225    -34.4913424    225    1    1.08889    1.00444;
    56    1    75.5    20.5    0    0    1    1.05460143    -29.7286476    225    1    1.08889    1.00444;
    57    1    0    0    0    0    1    1.05373944    -19.9993741    63    1    1.07937    0.920635;
    58    1    154    36.4    0    0    1    1.06595631    -34.5086421    225    1    1.08889    1.00444;
    59    1    5    1    0    0    1    1.0279794    -15.2317376    63    1    1.07937    0.952381;
    60    1    0    0    0    0    1    1.03363361    -9.81615711    63    1    1.07937    0.952381;
    61    1    46.3    11.9    0    0    1    1.03454749    -11.4031658    63    1    1.07937    0.952381;
    62    1    0    0    0    0    1    1.02039739    -9.78391609    63    1    1.07937    0.952381;
    63    1    16.8    2.9    0    0    1    1.01115827    -4.11118404    63    1    1.07937    0.952381;
    64    1    67.3    7.1    0    0    1    1.05440082    -22.2298185    225    1    1.08889    0.888889;
    65    1    12    2.8    0    0    1    1.04654119    -12.0356126    63    1    1.07937    0.952381;
    66    1    13    -6.4    0    0    1    1.02690916    -27.6256958    63    1    1.06349    0.936508;
    67    1    1    0    0    0    1    1.03869247    -23.4247179    63    1    1.07937    0.920635;
    68    1    53.1    1.1    0    0    1    1.01360386    -16.9220066    63    1    1.06349    0.936508;
    69    1    20.8    1.3    0    0    1    1.04078665    -62.3747425    63    1    1.06349    0.952381;
    70    1    10.6    4.2    0    0    1    1.0250585    -2.42718714    63    1    1.07937    0.952381;
    71    1    69.4    17.5    0    0    1    1.00977917    -33.2327367    63    1    1.04762    0.952381;
    72    1    0    0    0    0    1    1.07657728    -26.4919196    225    1    1.08889    1.00444;
    73    1    0    0    0    0    1    1.07658867    -26.4912239    225    1    1.08889    1.00444;
    74    1    58.8    -5    0    0    1    1.054945    -22.0687138    225    1    1.08889    0.888889;
    75    1    25.2    1.9    0    0    1    1.03792859    -25.764208    90    1    1.06667    0.977778;
    76    1    5.9    -2.1    0    0    1    1.07664168    -0.582229486    225    1    1.08889    0.986667;
    77    1    43.7    0.4    0    0    1    1.01508562    -18.5372004    63    1    1.06349    0.936508;
    78    1    0    0    0    0    1    1.03656989    -25.9107621    63    1    1.07937    0.920635;
    79    1    0    0    0    0    1    1.00480259    -32.038361    63    1    1.04762    0.952381;
    80    1    32.4    10.5    0    0    1    1.03510719    -31.5796786    225    1    1.08889    1.00444;
    81    1    32.4    9.1    0    0    1    1.0351259    -31.5796303    225    1    1.08889    1.00444;
    82    1    11.3    0.3    0    0    1    1.0250029    -19.6020396    63    1    1.06349    0.936508;
    83    1    79    24.8    0    0    1    1.04414768    -32.1624948    225    1    1.08889    1.00444;
    84    1    -0.1    0.4    0    0    1    1.01618669    -14.1628785    63    1    1.06349    0.936508;
    85    1    0.7    -1.5    0    0    1    1.04048473    -17.9585249    63    1    1.06349    0.936508;
    86    1    48.8    5.2    0    0    1    1.0155843    -49.8195531    90    1    1.06667    0.977778;
    87    1    0    0    0    0    1    1.02321968    -4.13191591    63    1    1.07937    0.952381;
    88    1    14.8    -1.2    0    0    1    1.03609541    -21.9054605    63    1    1.06349    0.936508;
    89    1    26.2    0.3    0    0    1    1.02731692    -35.6449524    90    1    1.07778    0.977778;
    90    1    0.2    -2.3    0    0    1    0.943150351    -7.09765489    45    1    1    0.888889;
    91    1    0    0    0    0    1    0.93894937    -6.38230708    45    1    1    0.888889;
    92    1    31.8    1.1    0    0    1    1.00876041    -21.1175161    63    1    1.06349    0.968254;
    93    1    2    -2.8    0    0    1    0.954375712    -8.7864417    45    1    1    0.888889;
    94    1    18.2    -4    0    0    1    1.03452478    -29.2002129    90    1    1.06667    0.977778;
    95    1    57.2    9.4    0    0    1    1.02264991    -41.7823294    90    1    1.06667    0.977778;
    96    1    0.9    -0.2    0    0    1    1.05009844    -10.3141626    63    1    1.06349    0.936508;
    97    1    57.7    3.8    0    0    1    1.06300563    -23.0205119    63    1    1.07937    0.920635;
    98    1    9.5    1    0    0    1    1.01783028    -23.467899    63    1    1.07937    0.952381;
    99    1    35.8    5.9    0    0    1    1.04166341    -11.0847412    63    1    1.07937    0.952381;
    100    1    63    7.8    0    0    1    1.01939287    -16.5674577    63    1    1.06349    0.936508;
    101    1    17.3    -0.8    0    0    1    1.00715772    -15.2537242    63    1    1.06349    0.936508;
    102    3    0    0    0    0    1    1.033    -17.3534814    63    1    1.07937    0.952381;
    103    1    12.6    -1.2    0    0    1    1.03378389    -10.0859296    63    1    1.07937    0.952381;
    104    1    0    0    0    0    1    1.06869633    -7.08828154    225    1    1.08889    0.986667;
    105    1    36.9    2.2    0    0    1    1.03562986    -20.5251507    225    1    1.08889    0.888889;
    106    1    58.2    10.7    0    0    1    1.04508612    -25.5436272    90    1    1.1    0.944444;
    107    1    107    14.3    0    0    1    1.03686603    -31.4155092    225    1    1.08444    1.00889;
    108    1    12.2    -2.4    0    0    1    1.04550216    -31.0095837    90    1    1.07778    0.977778;
    109    1    67.8    8.7    0    0    1    1.03900016    -13.8180781    63    1    1.06349    0.936508;
    110    1    0    0    0    0    1    1.02632031    -9.84540367    225    1    1.08889    0.933333;
    111    1    38.7    -7.5    0    0    1    0.999767092    -23.7130085    63    1    1.06349    0.968254;
    112    1    0    0    0    0    1    1.00789266    -32.5972599    63    1    1.04762    0.952381;
    113    1    0    0    0    0    1    1.04137101    -28.9456405    225    1    1.08889    1.00444;
    114    1    13.4    1.1    0    0    1    1.05148506    -13.8544187    63    1    1.06349    0.936508;
    115    1    0    0    0    0    1    1.06079963    -5.37476213    380    1    1.10526    1.05263;
    116    1    0    0    0    0    1    1.06079963    -5.37476213    380    1    1.10526    1.05263;
    117    1    14.9    0.2    0    0    1    1.01439576    -21.9237564    63    1    1.07937    0.952381;
    118    1    2    0.7    0    0    1    1.04032675    -25.4492444    90    1    1.06667    0.977778;
    119    1    40.6    6.9    0    0    1    1.00727897    -12.1448364    63    1    1.06349    0.936508;
    120    1    22    -2.3    0    0    1    1.02702842    -10.5141924    63    1    1.06349    0.936508;
    121    1    20.8    1.4    0    0    1    1.01845409    -28.3072398    63    1    1.07937    0.920635;
    122    2    0    0    0    0    1    1.026    -11.3396228    63    1    1.07937    0.952381;
    123    1    12    4.6    0    0    1    1.02341291    -11.4700019    63    1    1.07937    0.952381;
    124    1    8    -0.4    0    0    1    1.03010509    -31.9188166    90    1    1.06667    0.977778;
    125    1    11.1    0.4    0    0    1    1.02404818    -17.4703786    63    1    1.07937    0.952381;
    126    1    0.2    0.8    0    0    1    1.04155086    -18.0311483    63    1    1.06349    0.936508;
    127    1    14.7    2.7    0    0    1    1.00522531    -34.6707692    63    1    1.04762    0.952381;
    128    1    13.8    7.2    0    0    1    1.02415837    -13.3027432    63    1    1.06349    0.968254;
    129    1    19.1    10.8    0    0    1    1.02223185    -11.5357808    63    1    1.06349    0.968254;
    130    1    0    0    0    0    1    1.04909418    -10.6055544    225    1    1.08444    1.00889;
    131    1    119.3    12    0    0    1    1.04738842    -19.1523791    225    1    1.08444    1.00889;
    132    2    9.4    0    0    0    1    1.061    -17.2694505    90    1    1.07778    0.922222;
    133    1    2.7    0.4    0    0    1    0.97647812    -35.5779611    63    1    1.04762    0.952381;
    134    1    101.1    27.4    0    0    1    1.0186541    -32.2380596    225    1    1.08889    1.00444;
    135    1    0    0    0    0    1    1.06697463    -34.3141293    225    1    1.08889    1.00444;
    136    1    23.9    1.4    0    0    1    1.02765713    -45.055699    90    1    1.07778    0.977778;
    137    1    8.7    -3    0    0    1    1.022358    -13.6327079    63    1    1.06349    0.968254;
    138    1    0    0    0    0    1    1.05300439    -11.7088347    150    1    1.08    0.966667;
    139    1    8    7.1    0    0    1    1.04608709    -14.7822703    63    1    1.07937    0.920635;
    140    1    0    0    0    80    1    1.07606688    -11.5520314    225    1    1.08889    1;
    141    1    0    0    0    0    1    1.08733637    -8.18355054    380    1    1.10526    1.05263;
    142    1    22.4    7.4    0    0    1    1.03199189    -14.7440226    63    1    1.07937    0.952381;
    143    1    0    0    0    0    1    1.06274862    -9.81298929    225    1    1.08889    0.986667;
    144    1    16    5    0    0    1    1.0330789    -26.7321881    90    1    1.11111    0.955556;
    145    1    23.4    9    0    0    1    1.05608218    -21.9543835    225    1    1.08889    0.968889;
    146    1    0    0    0    0    1    1.07095586    -18.7372119    380    1    1.10526    1;
    147    1    30    5.5    0    0    1    1.04358849    -15.9211507    63    1    1.06349    0.936508;
    148    1    6.6    1.2    0    0    1    1.03739299    -13.0611391    63    1    1.06349    0.936508;
    149    1    16.9    4.1    0    0    1    1.03278779    -41.1124099    90    1    1.06667    0.977778;
    150    1    48.5    3.2    0    0    1    1.04116077    -10.702953    63    1    1.06349    0.936508;
    151    1    0    0    0    0    1    0.980713124    -26.7816013    63    1    1.06349    0.968254;
    152    1    45.3    12    0    7.7    1    0.980565342    -25.5273326    63    1    1.06349    0.968254;
    153    1    27.3    -5.5    0    0    1    1.04046199    -13.1012833    63    1    1.06349    0.936508;
    154    1    0    0    0    0    1    1.06517586    -9.66355942    225    1    1.08889    0.933333;
    155    2    0    0    0    0    1    1.02936051    -20.0294296    63    1    1.07937    0.920635;
    156    1    0    0    0    0    1    0.980662319    -26.7865775    63    1    1.06349    0.968254;
    157    1    0    -2.2    0    0    1    0.935356531    -10.3803193    45    1    1    0.888889;
    158    2    0    0    0    0    1    0.959    -8.66440314    45    1    1    0.888889;
    159    1    0    0    0    0    1    1.0371815    -13.3082616    63    1    1.06349    0.936508;
    160    1    41.7    5.9    0    0    1    1.044473    -18.970275    225    1    1.08889    0.888889;
    161    1    43.7    10    0    0    1    1.04428836    -18.9741641    225    1    1.08889    0.888889;
    162    1    -0.3    -1.6    0    0    1    1.01306543    -30.1832099    90    1    1.06667    0.977778;
    163    1    0    0    0    0    1    1.02787805    -10.5692705    63    1    1.07937    0.952381;
    164    1    0    0    0    0    1    1.02787805    -10.5692705    63    1    1.07937    0.952381;
    165    1    16.5    14.6    0    0    1    1.05882574    -36.1909654    20    1    1.15    0.8;
    166    1    13.3    3.2    0    0    1    1.03343219    -40.6634775    90    1    1.06667    0.977778;
    167    1    17.8    -0.8    0    0    1    1.02883923    -41.1323048    90    1    1.06667    0.977778;
    168    1    0    0    0    0    1    1.05895333    -36.184506    225    1    1.08444    1.00444;
    169    1    9.9    -0.9    0    0    1    1.01941305    -34.5269143    90    1    1.06667    0.977778;
    170    1    79.8    13.5    0    0    1    1.02283751    -34.9489154    90    1    1.07778    0.977778;
    171    1    28    0.8    0    30    1    1.03965803    -39.0178541    90    1    1.07778    0.977778;
    172    1    0    0    0    0    1    1.04576816    -34.4042222    225    1    1.08889    1.00444;
    173    1    28.5    8    0    0    1    1.05859675    -23.6877309    90    1    1.08889    0.933333;
    174    1    59.7    11.6    0    0    1    1.05584127    -26.414496    90    1    1.11111    0.955556;
    175    1    0    0    0    0    1    1.03785771    -18.6006573    63    1    1.07937    0.920635;
    176    2    0    0    0    0    1    1.09583038    -16.7641865    150    1    1.1    0.9;
    177    1    0    0    0    0    1    1.06126677    -30.8742731    225    1    1.08889    1.00444;
    178    1    0    0    0    0    1    1.06126699    -30.8742743    225    1    1.08889    1.00444;
    179    1    0    0    0    0    1    1.00542693    -34.6564646    63    1    1.04762    0.952381;
    180    1    0    0    0    0    1    1.06126549    -30.8742662    225    1    1.08889    1.00444;
    181    1    12.7    -5.3    0    0    1    1.05422033    -25.3422957    63    1    1.07937    0.920635;
    182    1    16    3.1    0    0    1    1.03857644    -10.9244734    63    1    1.06349    0.936508;
    183    1    5.5    -1.7    0    0    1    1.0242271    -22.6520767    63    1    1.07937    0.952381;
    184    1    5    1.4    0    0    1    1.0620548    -32.9797199    90    1    1.07778    0.977778;
    185    1    30.6    2.7    0    0    1    1.02269745    -15.6791229    63    1    1.07937    0.952381;
    186    1    1.2    0.2    0    0    1    1.02303317    -28.5280727    90    1    1.06667    0.977778;
    187    2    0    0    0    0    1    1.0484206    -20.3510375    63    1    1.07937    0.920635;
    188    1    0    0    0    0    1    1.09852796    -18.9274477    63    1    1.09875    0.920635;
    189    1    16.8    1.8    0    0    1    1.036543    -23.8844426    63    1    1.07937    0.920635;
    190    2    0    0    0    0    1    0.953092399    -8.10868081    45    1    1    0.888889;
    191    1    15.4    -1.1    0    0    1    1.01972264    -34.4589385    90    1    1.06667    0.977778;
    192    1    9.9    -0    0    0    1    1.05405605    -20.4805384    63    1    1.07937    0.920635;
    193    1    0.1    0.7    0    0    1    1.04155014    -29.4859975    225    1    1.08889    1.00444;
    194    1    0.7    -1.6    0    0    1    1.04739774    -24.5531503    63    1    1.07937    0.920635;
    195    1    0    0    0    0    1    1.04447777    -32.3311278    63    1    1.06362    0.952381;
    196    1    0    0    0    0    1    1.04447919    -32.3311704    63    1    1.06362    0.952381;
    197    1    27.5    -0.6    0    15    1    1.01387863    -32.1103869    63    1    1.07937    0.920635;
    198    1    11.1    -0.8    0    0    1    1.01964497    -22.9032704    63    1    1.07937    0.920635;
    199    1    12.6    2.7    0    0    1    1.01710046    -48.2576325    90    1    1.06667    0.977778;
    200    1    0    0    0    0    1    1.0831455    -22.9575111    225    1    1.08889    1;
...
];

%% generator data
%    bus    Pg    Qg    Qmax    Qmin    Vg    mBase    status    Pmax    Pmin    Pc1    Pc2    Qc1min    Qc1max    Qc2min    Qc2max    ramp_agc    ramp_10    ramp_30    ramp_q    apf
mpc.gen = [
    4    0    0    0    0    1.025    100    0    12    0    0    0    0    0    0    0    0    0    0    0    0;
    4    0    0    0    0    1.025    100    0    10    0    0    0    0    0    0    0    0    0    0    0    0;
    5    0    0    0    0    1.016    100    0    9.1    0    0    0    0    0    0    0    0    0    0    0    0;
    11    0.05    0    0    0    1.014    100    1    28    0    0    0    0    0    0    0    0    0    0    0    0;
    11    0    0    0    0    1.014    100    0    18    0    0    0    0    0    0    0    0    0    0    0    0;
    17    0    0    0    0    1.045    100    0    8.2    0    0    0    0    0    0    0    0    0    0    0    0;
    19    0    0    0    0    1.02    100    0    1.2    0    0    0    0    0    0    0    0    0    0    0    0;
    22    0    0    0    0    1.007    100    0    10    0    0    0    0    0    0    0    0    0    0    0    0;
    24    0    0    0    0    1.027    100    0    16.1    0    0    0    0    0    0    0    0    0    0    0    0;
    24    0    0    0    0    1.027    100    0    35.5    0    0    0    0    0    0    0    0    0    0    0    0;
    25    0.22    0    0    0    1.064    100    1    36    0    0    0    0    0    0    0    0    0    0    0    0;
    25    0    0    0    0    1.064    100    0    27.2    0    0    0    0    0    0    0    0    0    0    0    0;
    40    0    0    0    0    1.054    100    0    8    0    0    0    0    0    0    0    0    0    0    0    0;
    47    27.5665507    -10    9.5    -10    1.022    100    1    16    0    0    0    0    0    0    0    0    0    0    0    0;
    47    8.56    -10    9.5    -10    1.022    100    1    16    0    0    0    0    0    0    0    0    0    0    0    0;
    48    0    0    0    0    1.017    100    0    23    0    0    0    0    0    0    0    0    0    0    0    0;
    48    0    0    0    0    1.017    100    0    24    0    0    0    0    0    0    0    0    0    0    0    0;
    57    4.74    1    1    0.9    1.058    100    1    13    0    0    0    0    0    0    0    0    0    0    0    0;
    64    0    0    0    0    1.056    100    0    24    0    0    0    0    0    0    0    0    0    0    0    0;
    64    0    0    0    0    1.056    100    0    27.6    0    0    0    0    0    0    0    0    0    0    0    0;
    69    0    0    0    0    1.045    100    0    30.04    0    0    0    0    0    0    0    0    0    0    0    0;
    70    0    0    0    0    1.026    100    0    23    0    0    0    0    0    0    0    0    0    0    0    0;
    85    0    0    0    0    1.042    100    0    6.68    0    0    0    0    0    0    0    0    0    0    0    0;
    86    0    0    0    0    1.019    100    0    9.2    0    0    0    0    0    0    0    0    0    0    0    0;
    102    18.5976729    -0.263421331    21    -9    1.033    100    1    46    0    0    0    0    0    0    0    0    0    0    0    0;
    122    6.17    2.90933081    5    -2    1.026    100    1    12    0    0    0    0    0    0    0    0    0    0    0    0;
    124    0    0    0    0    1.032    100    0    9    0    0    0    0    0    0    0    0    0    0    0    0;
    125    5.16    0    0    0    1.026    100    1    26    0    0    0    0    0    0    0    0    0    0    0    0;
    125    1.16    0    0    0    1.026    100    1    12    0    0    0    0    0    0    0    0    0    0    0    0;
    132    12.3    2.44293388    3    -3    1.061    100    1    17    0    0    0    0    0    0    0    0    0    0    0    0;
    132    0    0    1    -1    1.061    100    0    4    0    0    0    0    0    0    0    0    0    0    0    0;
    132    0    0    3    -3    1.061    100    0    14    0    0    0    0    0    0    0    0    0    0    0    0;
    132    0    0    3    -3    1.061    100    0    14    0    0    0    0    0    0    0    0    0    0    0    0;
    137    0    0    0.8    -0.8    1.021    100    0    18    0    0    0    0    0    0    0    0    0    0    0    0;
    137    7.21    -0.8    0.8    -0.8    1.021    100    1    18    0    0    0    0    0    0    0    0    0    0    0    0;
    155    0    0    1.76    -1.76    1.035    100    0    5.3    0    0    0    0    0    0    0    0    0    0    0    0;
    158    8.29    3.87568219    10    -13    0.959    100    1    17.9    0    0    0    0    0    0    0    0    0    0    0    0;
    158    8.29    3.87568219    10    -13    0.959    100    1    17.9    0    0    0    0    0    0    0    0    0    0    0    0;
    176    0    0    10    -4    1.1    100    0    30    0    0    0    0    0    0    0    0    0    0    0    0;
    187    0    0    8    -8    1.075    100    0    11    0    0    0    0    0    0    0    0    0    0    0    0;
    187    0    0    2    -2    1.075    100    0    11    0    0    0    0    0    0    0    0    0    0    0    0;
    190    0    0    14    -14    0.951    100    0    30    0    0    0    0    0    0    0    0    0    0    0    0;
    192    9.17    0    0    0    1.058    100    1    23.5    0    0    0    0    0    0    0    0    0    0    0    0;
    194    0.42    1    1    0.9    1.056    100    1    15    0    0    0    0    0    0    0    0    0    0    0    0;
    194    0.42    1    1    0.9    1.056    100    1    15    0    0    0    0    0    0    0    0    0    0    0    0;
    217    0    0    0    0    1.009    100    0    11.94    0    0    0    0    0    0    0    0    0    0    0    0;
    224    0    0    2    0    1.099    100    0    6    0    0    0    0    0    0    0    0    0    0    0    0;
    227    0    0    0    0    1.012    100    0    7.5    0    0    0    0    0    0    0    0    0    0    0    0;
    236    0    0    0    0    1.033    100    0    33.5    0    0    0    0    0    0    0    0    0    0    0    0;
    236    0    0    0    0    1.033    100    0    24.3    0    0    0    0    0    0    0    0    0    0    0    0;
    238    0    0    0    0    1.033    100    0    8    0    0    0    0    0    0    0    0    0    0    0    0;
    238    1.01    0    0    0    1.033    100    1    36    0    0    0    0    0    0    0    0    0    0    0    0;
    246    0    0    2    0    1.02    100    0    1    0    0    0    0    0    0    0    0    0    0    0    0;
    246    0    0    10    -10    1.02    100    0    31    0    0    0    0    0    0    0    0    0    0    0    0;
    246    0    0    10    -10    1.02    100    0    31    0    0    0    0    0    0    0    0    0    0    0    0;
    246    0    0    10    -10    1.02    100    0    31    0    0    0    0    0    0    0    0    0    0    0    0;
    256    7.15    -4.53913974    10    -10    1.047    100    1    26    0    0    0    0    0    0    0    0    0    0    0    0;
    256    12.15    -4.53913974    10    -10    1.047    100    1    26    0    0    0    0    0    0    0    0    0    0    0    0;
    258    25.37    1    1    0.9    1.078    100    1    30    0    0    0    0    0    0    0    0    0    0    0    0;
    261    0    0    4    -4    1.049    100    0    8    0    0    0    0    0    0    0    0    0    0    0    0;
    269    0    0    0    0    1.006    100    0    12.6    0    0    0    0    0    0    0    0    0    0    0    0;
    282    0    0    6.1    -6.2    1.02    100    0    11.6    0    0    0    0    0    0    0    0    0    0    0    0;
    295    0    0    0    0    1.044    100    0    25.3    0    0    0    0    0    0    0    0    0    0    0    0;
    296    3.05    0    0    0    1.008    100    1    12    0    0    0    0    0    0    0    0    0    0    0    0;
    305    0    0    9    -9    1.042    100    0    15    0    0    0    0    0    0    0    0    0    0    0    0;
    312    4.2    0    0    0    1.011    100    1    25.8    0    0    0    0    0    0    0    0    0    0    0    0;
    312    15.2    0    0    0    1.011    100    1    49.6    0    0    0    0    0    0    0    0    0    0    0    0;
    317    0    0    0    0    1.058    100    0    0    -7    0    0    0    0    0    0    0    0    0    0    0;
    317    0    0    0    0    1.058    100    0    0    -7    0    0    0    0    0    0    0    0    0    0    0;
    319    0    0    0.1    -0.1    1.038    100    0    10.8    0    0    0    0    0    0    0    0    0    0    0    0;
    325    0    0    4    -4    1.03    100    0    11    0    0    0    0    0    0    0    0    0    0    0    0;
    332    0    0    13    -9    1.038    100    0    25    0    0    0    0    0    0    0    0    0    0    0    0;
    333    0    0    13    -9    1.048    100    0    25    0    0    0    0    0    0    0    0    0    0    0    0;
    336    6.4    0.45749949    5    -6    1.023    100    1    13    0    0    0    0    0    0    0    0    0    0    0    0;
    338    0    0    10    -10    1.076    100    0    21    0    0    0    0    0    0    0    0    0    0    0    0;
    338    0    0    0.1    -0.1    1.076    100    0    2    0    0    0    0    0    0    0    0    0    0    0    0;
    345    0    0    0    0    1.027    100    0    2.3    0    0    0    0    0    0    0    0    0    0    0    0;
    345    0    0    0    0    1.027    100    0    19.5    0    0    0    0    0    0    0    0    0    0    0    0;
    348    0    0    0    0    1.047    100    0    22    0    0    0    0    0    0    0    0    0    0    0    0;
    357    0    0    0    0    0.996    100    0    12    0    0    0    0    0    0    0    0    0    0    0    0;
    357    0    0    0    0    0.996    100    0    12    0    0    0    0    0    0    0    0    0    0    0    0;
    364    125.15    43.6302472    59    -26    1.035    100    1    130    0    0    0    0    0    0    0    0    0    0    0    0;
    391    0    0    0    0    1.03    100    0    2.7    0    0    0    0    0    0    0    0    0    0    0    0;
    409    0    0    5    -5    1.034    100    0    18    0    0    0    0    0    0    0    0    0    0    0    0;
    411    0    0    0    0    1.027    100    0    10    0    0    0    0    0    0    0    0    0    0    0    0;
    411    0    0    0    0    1.027    100    0    11.5    0    0    0    0    0    0    0    0    0    0    0    0;
    431    0    0    0    0    1.049    100    0    12    0    0    0    0    0    0    0    0    0    0    0    0;
    440    0    0    10.96    -11.99    1.023    100    0    34.25    0    0    0    0    0    0    0    0    0    0    0    0;
    447    18.4    1.18736188    8    -9    0.997    100    1    25    0    0    0    0    0    0    0    0    0    0    0    0;
    462    0    0    0    0    1.046    100    0    2.4    0    0    0    0    0    0    0    0    0    0    0    0;
    462    0    0    0    0    1.046    100    0    16    0    0    0    0    0    0    0    0    0    0    0    0;
    464    3.68    2.70430715    6    -3    1.176    100    1    27    1    0    0    0    0    0    0    0    0    0    0    0;
    464    3.68    2.70430715    6    -3    1.176    100    1    27    1    0    0    0    0    0    0    0    0    0    0    0;
    466    0    0    19    -10    1.035    100    0    48    1    0    0    0    0    0    0    0    0    0    0    0;
    470    0    0    6    -6    1.045    100    0    10    0    0    0    0    0    0    0    0    0    0    0    0;
    470    0    0    5.4    -5.4    1.045    100    0    9    0    0    0    0    0    0    0    0    0    0    0    0;
    479    0    0    17    -16    1.022    100    0    27    0    0    0    0    0    0    0    0    0    0    0    0;
    479    0    0    17    -16    1.022    100    0    27    0    0    0    0    0    0    0    0    0    0    0    0;
    479    0    0    17    -16    1.022    100    0    27    0    0    0    0    0    0    0    0    0    0    0    0;
    491    0    0    8    -17    1.054    100    0    23.4    0    0    0    0    0    0    0    0    0    0    0    0;
    508    0    0    2    -2    1.027    100    0    4    0    0    0    0    0    0    0    0    0    0    0    0;
    519    0    0    0    0    0.999    100    0    10    0    0    0    0    0    0    0    0    0    0    0    0;
    520    0    0    0    0    1.025    100    0    12    0    0    0    0    0    0    0    0    0    0    0    0;
    530    1.92    -0.151253461    4.8    -4.8    1.039    100    1    8    0    0    0    0    0    0    0    0    0    0    0    0;
    530    1.92    -0.151253461    4.8    -4.8    1.039    100    1    8    0    0    0    0    0    0    0    0    0    0    0    0;
    530    1.92    -0.151253461    4.8    -4.8    1.039    100    1    8    0    0    0    0    0    0    0    0    0    0    0    0;
    537    0    0    0    0    1.028    100    0    12    0    0    0    0    0    0    0    0    0    0    0    0;
    537    1.93    0    0    0    1.028    100    1    24    0    0    0    0    0    0    0    0    0    0    0    0;
    546    0    2    2    1.9    1.025    100    1    9    0    0    0    0    0    0    0    0    0    0    0    0;
    548    0    0    2    0    1.04    100    0    12    0    0    0    0    0    0    0    0    0    0    0    0;
    570    0    0    0    0    0.997    100    0    12    0    0    0    0    0    0    0    0    0    0    0    0;
    570    0    0    0    0    0.997    100    0    30    0    0    0    0    0    0    0    0    0    0    0    0;
    570    0    0    0    0    0.997    100    0    11.5    0    0    0    0    0    0    0    0    0    0    0    0;
    583    2.96    7    7    -4    1.009    100    1    16    0    0    0    0    0    0    0    0    0    0    0    0;
    585    0    0    0    0    0.986    100    0    9    0    0    0    0    0    0    0    0    0    0    0    0;
    586    0    0    5.7    -5.7    1.025    100    0    9.5    0    0    0    0    0    0    0    0    0    0    0    0;
    589    0    0    0.1    -0.1    1.018    100    0    1    0    0    0    0    0    0    0    0    0    0    0    0;
    593    0    0    10    -10    1.03    100    0    21    0    0    0    0    0    0    0    0    0    0    0    0;
    600    0    0    1    -1    1.03    100    0    6.1    0    0    0    0    0    0    0    0    0    0    0    0;
    610    39.05    -5.16002953    45    -45    1.021    100    1    45    0    0    0    0    0    0    0    0    0    0    0    0;
    610    0    0    45    -45    1.021    100    0    45    0    0    0    0    0    0    0    0    0    0    0    0;
    612    0    0    0    0    1    100    0    12    0    0    0    0    0    0    0    0    0    0    0    0;
    612    0    0    0    0    1    100    0    12    0    0    0    0    0    0    0    0    0    0    0    0;
    612    0    0    0    0    1    100    0    12    0    0    0    0    0    0    0    0    0    0    0    0;
    613    0    0    0    0    0.994    100    0    35    0    0    0    0    0    0    0    0    0    0    0    0;
    613    0    0    0    0    0.994    100    0    11.5    0    0    0    0    0    0    0    0    0    0    0    0;
    624    -4.11    -5.23816214    8.3    -8.3    1.047    100    1    8.3    -8.3    0    0    0    0    0    0    0    0    0    0    0;
    633    0    0    4    -4    1.028    100    0    7.3    0    0    0    0    0    0    0    0    0    0    0    0;
    636    0    0    7    0    0.999    100    0    15    0    0    0    0    0    0    0    0    0    0    0    0;
    636    1    4.75507228    7    0    0.999    100    1    15    0    0    0    0    0    0    0    0    0    0    0    0;
    646    197.89    7.89279559    80    -75    1.104    100    1    239    0    0    0    0    0    0    0    0    0    0    0    0;
    657    0    0    7    0    1.065    100    0    7    0    0    0    0    0    0    0    0    0    0    0    0;
    675    0    0    0    0    1.026    100    0    12    0    0    0    0    0    0    0    0    0    0    0    0;
    675    0.14    0    0    0    1.026    100    1    12    0    0    0    0    0    0    0    0    0    0    0    0;
    676    0    0    0    0    1.025    100    0    7.5    0    0    0    0    0    0    0    0    0    0    0    0;
    676    0    0    0    0    1.025    100    0    24    0    0    0    0    0    0    0    0    0    0    0    0;
    684    0    0    0    0    0.996    100    0    6.6    0    0    0    0    0    0    0    0    0    0    0    0;
    685    0    0    0    0    1.05    100    0    12    0    0    0    0    0    0    0    0    0    0    0    0;
    689    2.31    1.36266009    6    -5    0.966    100    1    9    0    0    0    0    0    0    0    0    0    0    0    0;
    689    2.31    1.36266009    6    -5    0.966    100    1    9    0    0    0    0    0    0    0    0    0    0    0    0;
    689    0    0    8    -5    0.966    100    0    11    0    0    0    0    0    0    0    0    0    0    0    0;
    689    2.31    2.51950738    8    -5    0.966    100    1    11    0    0    0    0    0    0    0    0    0    0    0    0;
    700    0    0    0    0    1.033    100    0    32.35    0    0    0    0    0    0    0    0    0    0    0    0;
    700    0    0    0    0    1.033    100    0    12    0    0    0    0    0    0    0    0    0    0    0    0;
    700    0    0    0    0    1.033    100    0    21    0    0    0    0    0    0    0    0    0    0    0    0;
    704    29.21    -6.19739067    15    -17    1.015    100    1    37    0    0    0    0    0    0    0    0    0    0    0    0;
    704    27.22    -6.19739067    15    -17    1.015    100    1    37    0    0    0    0    0    0    0    0    0    0    0    0;
    703    26.46    -6.62397901    15    -15    1.014    100    1    37    0    0    0    0    0    0    0    0    0    0    0    0;
    703    28.46    -6.62397901    15    -15    1.014    100    1    37    0    0    0    0    0    0    0    0    0    0    0    0;
    702    28.46    -6.60615778    15    -17    1.014    100    1    37    0    0    0    0    0    0    0    0    0    0    0    0;
    702    28.46    -6.60615778    15    -17    1.014    100    1    37    0    0    0    0    0    0    0    0    0    0    0    0;
    710    0    0    2    -2    0.963    100    0    4    0    0    0    0    0    0    0    0    0    0    0    0;
    710    0    0    2.5    -2.5    0.963    100    0    4    0    0    0    0    0    0    0    0    0    0    0    0;
    710    1    3    3    -3    0.963    100    1    5.7    0    0    0    0    0    0    0    0    0    0    0    0;
    710    0    0    6    -5    0.963    100    0    8.5    0    0    0    0    0    0    0    0    0    0    0    0;
    737    0    0    0    0    1.021    100    0    19.5    0    0    0    0    0    0    0    0    0    0    0    0;
    738    26.22    -3.5985821    18    -18    0.995    100    1    39    0    0    0    0    0    0    0    0    0    0    0    0;
    739    0.21    0    0    0    0.995    100    1    11.5    0    0    0    0    0    0    0    0    0    0    0    0;
    739    9.21    0    0    0    0.995    100    1    32    0    0    0    0    0    0    0    0    0    0    0    0;
    741    0    0    0    0    1.029    100    0    12    0    0    0    0    0    0    0    0    0    0    0    0;
    741    0    0    0    0    1.029    100    0    32    0    0    0    0    0    0    0    0    0    0    0    0;
    742    0    0    0.1    -0.1    1.034    100    0    5    0    0    0    0    0    0    0    0    0    0    0    0;
    749    0    0    3.97    -3.7    1.008    100    0    6.7    0    0    0    0    0    0    0    0    0    0    0    0;
    749    0    0    3.54    -3    1.008    100    0    5.6    0    0    0    0    0    0    0    0    0    0    0    0;
    750    5.08    -5.46473031    15    -15    1.002    100    1    26.6    0    0    0    0    0    0    0    0    0    0    0    0;
    751    1.88    2    2    -2    1.014    100    1    7    1    0    0    0    0    0    0    0    0    0    0    0;
    756    0    0    3    -3    1.02    100    0    5    -5    0    0    0    0    0    0    0    0    0    0    0;
    763    0    0    8    -8    1.05    100    0    23.5    0    0    0    0    0    0    0    0    0    0    0    0;
    765    0    0    0    0    1.037    100    0    6    0    0    0    0    0    0    0    0    0    0    0    0;
    766    0    0    0    0    1.036    100    0    6    0    0    0    0    0    0    0    0    0    0    0    0;
    765    16.81    -6.23076258    10    -6.42    1.037    100    1    37.5    0    0    0    0    0    0    0    0    0    0    0    0;
    766    15.91    -2.35110446    10    -6    1.036    100    1    37.5    0    0    0    0    0    0    0    0    0    0    0    0;
    767    0    0    0.06    -0.06    0.586    100    0    0.6    0    0    0    0    0    0    0    0    0    0    0    0;
    767    0    0    2.61    -2.61    0.586    100    0    26.1    0    0    0    0    0    0    0    0    0    0    0    0;
    767    0    0    0.16    -0.16    0.586    100    0    1.6    0    0    0    0    0    0    0    0    0    0    0    0;
    767    0    0    0.11    -0.11    0.586    100    0    1.1    0    0    0    0    0    0    0    0    0    0    0    0;
    771    0    0    0    0    1.011    100    0    37.5    0    0    0    0    0    0    0    0    0    0    0    0;
    771    1.22    0    0    0    1.011    100    1    34    0    0    0    0    0    0    0    0    0    0    0    0;
    791    0    0    26    -26    1.008    100    0    8    0    0    0    0    0    0    0    0    0    0    0    0;
    791    0    0    26    -26    1.008    100    0    15    0    0    0    0    0    0    0    0    0    0    0    0;
    792    0    0    26    -26    1.016    100    0    19    0    0    0    0    0    0    0    0    0    0    0    0;
    806    23.16    -6.95236172    15    -17    1.014    100    1    31    0    0    0    0    0    0    0    0    0    0    0    0;
    806    25.15    -6.95236172    15    -17    1.014    100    1    31    0    0    0    0    0    0    0    0    0    0    0    0;
    807    25.51    -4.69235141    15    -17    1.018    100    1    31    0    0    0    0    0    0    0    0    0    0    0    0;
    807    25.51    -4.69235141    15    -17    1.018    100    1    31    0    0    0    0    0    0    0    0    0    0    0    0;
    808    25.51    -5.97385467    15    -17    1.016    100    1    31    0    0    0    0    0    0    0    0    0    0    0    0;
    808    24.51    -5.97385467    15    -17    1.016    100    1    31    0    0    0    0    0    0    0    0    0    0    0    0;
    812    35.18    0    0    0    1.017    100    1    40.8    0    0    0    0    0    0    0    0    0    0    0    0;
    820    22.51    -3.03628698    6    -9    1.022    100    1    32    1    0    0    0    0    0    0    0    0    0    0    0;
    820    0    0    6    -9    1.022    100    0    32    1    0    0    0    0    0    0    0    0    0    0    0;
    821    23.41    -0.898079422    6    -9    1.022    100    1    32    1    0    0    0    0    0    0    0    0    0    0    0;
    821    23.41    -0.898079422    6    -9    1.022    100    1    32    1    0    0    0    0    0    0    0    0    0    0    0;
    821    20.41    -0.898079422    6    -9    1.022    100    1    32    1    0    0    0    0    0    0    0    0    0    0    0;
    821    22.41    -0.898079422    6    -9    1.022    100    1    32    1    0    0    0    0    0    0    0    0    0    0    0;
    831    0    0    3    -3    1.044    100    0    13    0    0    0    0    0    0    0    0    0    0    0    0;
    831    0    0    3    -3    1.044    100    0    7    0    0    0    0    0    0    0    0    0    0    0    0;
    834    0    0    0    0    1.051    100    0    2.4    0    0    0    0    0    0    0    0    0    0    0    0;
    835    7.42    2.04464734    10    -10    1.047    100    1    27    0    0    0    0    0    0    0    0    0    0    0    0;
    836    0    0    10    -10    0.981    100    0    20    0    0    0    0    0    0    0    0    0    0    0    0;
    838    0    0    3.14    -3.43    1.077    100    0    9.8    0    0    0    0    0    0    0    0    0    0    0    0;
...
];

%% branch data
%    fbus    tbus    r    x    b    rateA    rateB    rateC    ratio    angle    status    angmin    angmax    Pf    Qf    Pt    Qt
mpc.branch = [
    4647    1    0.005726    0.010482    0    0    0    0    1    0    1    0    0    -1.0000    1.0000    1.0001    -0.9998;
    5244    1    0.01284    0.025679    0    0    0    0    1    0    1    0    0    1.0004    -0.9993    -1.0001    0.9998;
    1682    2    0.005799    0.010615    0.0075    0    0    0    1    0    1    0    0    0.0000    -0.7885    -0.0000    0.0000;
    1673    3    0.134039    0.309398    0.0035    0    0    0    1    0    1    0    0    16.2851    1.6049    -15.9485    -1.1932;
    2303    3    0.049131    0.133283    0.0015    0    0    0    1    0    1    0    0    -1.1448    2.4640    1.1485    -2.6068;
    700    4    0.025926    0.109136    0.0002    0    0    0    1    0    1    0    0    12.3886    4.3460    -12.3466    -4.1903;
    3939    4    0.05    0.126914    0.0006    0    0    0    1    0    1    0    0    -3.7507    3.4310    3.7630    -3.4627;
    5046    4    0.02321    0.097407    0.0016    0    0    0    1    0    1    0    0    41.3941    -3.4365    -41.0164    4.8530;
    4413    5    0.040564    0.113631    0.0013    0    0    0    1    0    1    0    0    12.9667    0.9541    -12.9000    -0.9000;
    2779    6    0.006047    0.020912    0.0222    0    0    0    1    0    1    0    0    13.0106    2.9793    -13.0000    -5.3000;
    2780    7    0.012472    0.032099    0.0061    0    0    0    1    0    1    0    0    2.3006    -0.4662    -2.3000    -0.2000;
    2466    8    0.002607    0.017462    0.0324    540    540    540    1    0    1    0    0    15.8061    -3.7730    -15.8000    0.3000;
    470    9    0.053893    0.14258    0.0017    0    0    0    1    0    1    0    0    15.0104    0.1064    -14.9000    -0.0000;
    11    10    0.000247    0.001235    0.0005    0    0    0    1    0    1    0    0    0.0000    -0.0436    0.0000    -0.0077;
    11    10    0.000247    0.001235    0.0002    0    0    0    1    0    1    0    0    0.0000    -0.0282    0.0000    0.0077;
    30    11    0.039753    0.100988    0.0047    0    0    0    1    0    1    0    0    -3.8272    4.1793    3.8404    -4.6296;
    2929    11    0.037654    0.096173    0.001    0    0    0    1    0    1    0    0    37.4924    1.3765    -36.9904    -0.1985;
    2181    12    0.014613    0.060721    0.0008    0    0    0    1    0    1    0    0    7.7999    2.8770    -7.7902    -2.9190;
    4017    12    0.034064    0.121139    0.0015    0    0    0    1    0    1    0    0    7.7333    3.0666    -7.7105    -3.1410;
    4019    12    0.000242    0.000442    0.0004    0    0    0    1    0    1    0    0    -15.5000    -6.1000    15.5007    6.0600;
    115    13    2.1e-05    0.000125    0.1386    737    737    737    1    0    1    0    0    0.0000    0.0000    0.0000    -15.5964;
    2337    13    0.000145    0.001877    0.0635    2487    2487    2487    1    0    1    0    0    -295.6084    -69.5120    295.7269    63.9119;
    4577    13    0.000319    0.003234    0.0838    1841    1841    1841    1    0    1    0    0    295.9771    25.8094    -295.7269    -32.7191;
    116    13    2.1e-05    0.000125    0.1386    737    737    737    1    0    1    0    0    0.0000    0.0000    0.0000    -15.5964;
    1225    14    0.04    0.134198    0.0274    0    0    0    1    0    1    0    0    -51.4122    -7.0490    52.4293    7.4955;
    2874    14    0.012222    0.052346    0.0026    0    0    0    1    0    1    0    0    -41.3194    0.6593    41.5086    -0.1371;
    4595    14    0.007284    0.045432    0.0024    0    0    0    1    0    1    0    0    122.4703    5.4056    -121.5042    0.3512;
    4955    14    0.059963    0.154222    0.0236    0    0    0    1    0    1    0    0    -34.6842    -6.5017    35.3857    5.7511;
    5230    14    0.018025    0.110988    0.0073    0    0    0    1    0    1    0    0    -10.4359    -7.2821    10.4617    6.6352;
    2874    14    0.012222    0.052593    0.0032    0    0    0    1    0    1    0    0    -41.1361    0.5798    41.3236    -0.1275;
    4595    14    0.007284    0.044938    0.0024    0    0    0    1    0    1    0    0    123.7918    5.2523    -122.8048    0.5673;
    2906    15    0.037541    0.100529    0.0011    0    0    0    1    0    1    0    0    -35.5090    6.7277    35.9916    -5.5483;
    4124    15    0.090199    0.211388    0.0023    0    0    0    1    0    1    0    0    -1.4164    -3.0578    1.4259    2.8445;
    4455    15    0.09801    0.267574    0    0    0    0    1    0    1    0    0    38.7550    0.9477    -37.4174    2.7038;
    249    16    0.071806    0.191484    0.0019    0    0    0    1    0    1    0    0    5.5437    -0.1348    -5.5229    -0.0112;
    337    16    0.119174    0.284958    0.0044    0    0    0    1    0    1    0    0    8.4594    1.6146    -8.3771    -1.8888;
    5834    17    0.022346    0.061111    0.0029    0    0    0    1    0    1    0    0    10.9245    -0.1481    -10.9000    -0.1000;
    3727    18    0.009383    0.019753    0    0    0    0    1    0    1    0    0    0.0000    0.0000    0.0000    0.0000;
    5094    19    0.000252    0.000504    0    0    0    0    1    0    1    0    0    1.0000    0.0000    -1.0000    0.0000;
    3727    20    0.001975    0.004444    0    0    0    0    1    0    1    0    0    5.6079    -17.9821    -5.6000    18.0000;
    1354    21    0.036296    0.099012    0.0045    0    0    0    1    0    1    0    0    -11.0308    -0.7500    11.0735    0.3977;
    1598    21    0.032716    0.089136    0.0057    0    0    0    1    0    1    0    0    18.7832    -1.5023    -18.6735    1.2023;
    1843    22    0.138574    0.351474    0.0058    0    0    0    1    0    1    0    0    16.8872    -0.5813    -16.5119    0.9341;
    5023    22    0.094407    0.210456    0.0044    0    0    0    1    0    1    0    0    1.9945    1.5005    -1.9881    -1.9341;
    1157    23    0.047115    0.117158    0.001    0    0    0    1    0    1    0    0    12.3222    0.6207    -12.2541    -0.5559;
    2703    23    0.039557    0.120937    0.0132    0    0    0    1    0    1    0    0    20.3229    0.7207    -20.1678    -1.6318;
    3425    23    0.022676    0.062484    0.0007    0    0    0    1    0    1    0    0    -10.0000    0.0000    10.0219    -0.0123;
    144    24    0.064568    0.16716    0.0113    0    0    0    1    0    1    0    0    21.1083    -4.0458    -20.8315    3.5643;
    1282    24    0.048605    0.128481    0.0062    0    0    0    1    0    1    0    0    -3.8234    1.4329    3.8315    -2.0643;
    490    25    0.004815    0.02963    0.0016    0    0    0    1    0    1    0    0    28.1602    -11.7909    -28.1204    11.8562;
    2093    25    0.007309    0.04463    0.0073    0    0    0    1    0    1    0    0    26.4116    10.2459    -26.3596    -10.7562;
    612    26    0.034321    0.145802    0.0073    0    0    0    1    0    1    0    0    -44.6097    -3.3839    45.3002    5.5760;
    1866    26    0.004815    0.009753    0.0005    0    0    0    1    0    1    0    0    -15.0000    2.0000    15.0106    -2.0303;
    2602    26    0.049012    0.133704    0.0063    0    0    0    1    0    1    0    0    -37.7848    10.8344    38.5253    -9.4647;
    2922    26    0.04642    0.126543    0.0058    0    0    0    1    0    1    0    0    -11.5317    1.3153    11.5928    -1.7486;
    3339    26    0.046296    0.125926    0.006    0    0    0    1    0    1    0    0    -56.2746    0.2527    57.7692    3.2071;
    4632    26    0.053704    0.136753    0.0065    0    0    0    1    0    1    0    0    -46.3485    6.3551    47.5245    -4.0230;
    2922    26    0.03358    0.120988    0.0062    0    0    0    1    0    1    0    0    -12.4786    0.4078    12.5295    -0.8656;
    536    27    0.006163    0.041067    0.0759    446    446    446    1    0    1    0    0    137.3234    -23.6157    -136.2582    22.2592;
    2350    27    0.000652    0.004369    0.0081    558    558    558    1    0    1    0    0    107.7377    44.0127    -107.6587    -44.3880;
    2684    28    0.050945    0.131922    0.0015    0    0    0    1    0    1    0    0    11.9350    -0.2712    -11.8658    0.2938;
    3892    28    0.058781    0.149005    0.0017    0    0    0    1    0    1    0    0    -10.8977    0.0911    10.9658    -0.0938;
    2887    29    0.067019    0.137566    0.0037    0    0    0    1    0    1    0    0    34.6260    -17.9817    -33.5873    19.7509;
    3321    29    0.032754    0.088939    0.0039    0    0    0    1    0    1    0    0    20.5097    14.0420    -20.3100    -13.8910;
    3321    29    0.030184    0.080096    0.0053    0    0    0    1    0    1    0    0    22.8284    15.3271    -22.6027    -15.2600;
    144    30    0.066049    0.187778    0.0099    0    0    0    1    0    1    0    0    25.5905    0.4446    -25.1846    -0.3299;
    1553    30    0.065062    0.133704    0.0062    0    0    0    1    0    1    0    0    -5.4377    7.2707    5.4920    -7.8032;
    4841    30    0.041728    0.106049    0.005    0    0    0    1    0    1    0    0    16.4889    -0.6968    -16.3802    0.4538;
    150    31    0.009574    0.03875    0.0114    0    0    0    1    0    1    0    0    -23.8139    -0.3663    23.8640    -0.6692;
    3162    31    0.000171    0.000313    0.0002    0    0    0    1    0    1    0    0    -0.3000    0.2000    0.3000    -0.2218;
    3692    31    0.034266    0.09423    0.001    0    0    0    1    0    1    0    0    -36.2843    10.1994    36.7347    -9.0694;
    4741    31    0.006803    0.028219    0    0    0    0    1    0    1    0    0    -13.0943    -7.6812    13.1088    7.7413;
    150    31    0.008566    0.037541    0.0121    0    0    0    1    0    1    0    0    -24.6862    -0.8365    24.7344    -0.2668;
    3729    32    0.009733    0.034089    0.0185    0    0    0    1    0    1    0    0    38.9572    4.6874    -38.8213    -6.2549;
    366    34    0.000277    0.002015    0.003    288    288    288    1    0    1    0    0    27.9100    -55.4282    -27.9004    55.1635;
    1017    33    0.00881    0.033995    0.0607    289    289    289    1    0    1    0    0    -89.4998    14.9739    90.1585    -19.2228;
    1158    33    0.004642    0.019832    0.0354    255    255    255    1    0    1    0    0    -16.8134    -31.0972    16.8609    27.3555;
    2580    34    0.008861    0.03506    0.0623    288    288    288    1    0    1    0    0    13.7785    -34.5292    -13.6848    28.0166;
    2704    34    0.006993    0.032869    0.0557    255    255    255    1    0    1    0    0    -13.3411    -14.8803    13.3612    8.7931;
    4746    33    0.002173    0.008731    0.0152    0    0    0    1    0    1    0    0    -29.0443    -8.4195    29.0618    6.7882;
    4858    34    0.00077    0.003121    0.0051    0    0    0    1    0    1    0    0    -22.2641    16.2267    22.2694    -16.7739;
    5671    33    0.004109    0.016138    0.0284    288    288    288    1    0    1    0    0    38.2952    -28.6852    -38.2141    25.8288;
    368    35    8.3e-05    0.000907    0.0202    1034    1034    1034    1    0    1    0    0    137.9400    -89.4358    -137.9206    87.3271;
    1109    35    0.000552    0.006726    0.0939    1786    1786    1786    1    0    1    0    0    387.0149    -49.6115    -386.2848    47.7249;
    2150    35    0.000512    0.008012    0.2455    2462    2462    2462    1    0    1    0    0    350.7080    -24.1226    -350.1603    4.4573;
    3135    35    0.001107    0.00918    0.1906    1644    1644    1644    1    0    1    0    0    -250.7760    3.7224    251.3855    -20.5455;
    367    36    6.2e-05    0.000741    0.0173    1095    1095    1095    1    0    1    0    0    130.8600    9.6507    -130.8508    -11.5417;
    2150    35    0.000512    0.008019    0.2455    2462    2462    2462    1    0    1    0    0    350.4037    -24.0945    -349.8569    4.4217;
    2150    36    0.001153    0.013123    0.1841    1433    1433    1433    1    0    1    0    0    62.1295    -38.4699    -62.0830    17.7581;
    5229    37    0.055933    0.120685    0.0013    0    0    0    1    0    1    0    0    -21.9556    6.4469    22.2442    -5.9569;
    5515    37    0.039053    0.084404    0.001    0    0    0    1    0    1    0    0    19.6931    -2.7384    -19.5442    2.9569;
    730    38    0.00252    0.006551    0.0001    0    0    0    1    0    1    0    0    5.0006    -1.0090    -5.0000    1.0000;
    1229    39    0.009877    0.042222    0.0021    0    0    0    1    0    1    0    0    48.5119    -1.6132    -48.2876    2.3551;
    5809    39    0.024815    0.063086    0.0029    0    0    0    1    0    1    0    0    -52.2980    3.2365    52.9752    -1.8102;
    1229    39    0.009877    0.042222    0.0021    0    0    0    1    0    1    0    0    48.5119    -1.6132    -48.2876    2.3551;
    2251    40    0.056173    0.142593    0.0066    0    0    0    1    0    1    0    0    18.2251    -6.0283    -18.0393    5.7738;
    4595    40    0.034444    0.109012    0.0076    0    0    0    1    0    1    0    0    20.2150    9.5143    -20.0607    -9.8738;
    430    41    0.000158    0.000672    0.0719    331    331    331    1    0    1    0    0    16.2005    -5.1873    -16.2001    -2.8759;
    3953    41    4.5e-05    8.9e-05    0.002    268    268    268    1    0    1    0    0    -16.2000    -3.1000    16.2001    2.8759;
    1484    42    0.01096    0.020063    0.009    0    0    0    1    0    1    0    0    0.0208    -0.3275    -0.0208    -0.8077;
    2765    42    0.002268    0.008818    0.0099    0    0    0    1    0    1    0    0    -0.0208    -2.0562    0.0208    0.8077;
    2724    43    0.001481    0.006296    0.0039    0    0    0    1    0    1    0    0    3.2002    2.2847    -3.2000    -2.7000;
    3488    44    0.050617    0.137012    0.009    0    0    0    1    0    1    0    0    28.1272    -11.0685    -27.6893    11.3126;
    4322    44    0.074326    0.194507    0.0021    0    0    0    1    0    1    0    0    -14.1516    11.8124    14.3893    -11.4126;
    5097    45    0.000247    0.000741    0    0    0    0    1    0    1    0    0    3.8000    1.6001    -3.8000    -1.6000;
    1085    46    0.049131    0.134039    0.001    0    0    0    1    0    1    0    0    18.1542    0.4758    -18.0041    -0.1730;
...